/*--------------------------------*- C++ -*----------------------------------*\
| =========                 |                                                 |
| \\      /  F ield         | OpenFOAM: The Open Source CFD Toolbox           |
|  \\    /   O peration     | Version:  2.3.0                                 |
|   \\  /    A nd           | Web:      www.OpenFOAM.org                      |
|    \\/     M anipulation  |                                                 |
\*---------------------------------------------------------------------------*/
FoamFile
{
    version     2.0;
    format      ascii;
    class       dictionary;
    location    "constant";
    object      transportProperties;
}
// * * * * * * * * * * * * * * * * * * * * * * * * * * * * * * * * * * * * * //

transportModel  Newtonian;

nu              nu [ 0 2 -1 0 0 0 0 ] 0.1380e-3;


/*

 1.0e-03 *

    0.6350	Re 80
    0.1861	Re 273
    0.1100	Re 462
    0.0862	Re 589
    0.0694	Re 732	

    0.1380	Re 368
*/

/* 0.508
   0.0508
   0.001016
   0.000508
   0.000254
   0.000127
   0.000084666666667
   0.0000635
*/
// ************************************************************************* //


