/*--------------------------------*- C++ -*----------------------------------*\
| =========                 |                                                 |
| \\      /  F ield         | OpenFOAM: The Open Source CFD Toolbox           |
|  \\    /   O peration     | Version:  v1606+                                |
|   \\  /    A nd           | Web:      www.OpenFOAM.com                      |
|    \\/     M anipulation  |                                                 |
\*---------------------------------------------------------------------------*/
FoamFile
{
    version     2.0;
    format      binary;
    class       polyBoundaryMesh;
    location    "constant/polyMesh";
    object      boundary;
}
// * * * * * * * * * * * * * * * * * * * * * * * * * * * * * * * * * * * * * //

5
(
    inlet
    {
        type            patch;
        nFaces          58;
        startFace       118396;
    }
    outlet
    {
        type            patch;
        nFaces          124;
        startFace       118454;
    }
    upperWall
    {
        type            wall;
        inGroups        1(wall);
        nFaces          560;
        startFace       118578;
    }
    lowerWall
    {
        type            wall;
        inGroups        1(wall);
        nFaces          626;
        startFace       119138;
    }
    frontAndBack
    {
        type            empty;
        inGroups        1(empty);
        nFaces          119080;
        startFace       119764;
    }
)

// ************************************************************************* //
