/*--------------------------------*- C++ -*----------------------------------*\
| =========                 |                                                 |
| \\      /  F ield         | OpenFOAM: The Open Source CFD Toolbox           |
|  \\    /   O peration     | Version:  v1806                                 |
|   \\  /    A nd           | Web:      www.OpenFOAM.com                      |
|    \\/     M anipulation  |                                                 |
\*---------------------------------------------------------------------------*/
FoamFile
{
    version     2.0;
    format      ascii;
    class       dictionary;
    object      blockMeshDict;
}

// * * * * * * * * * * * * * * * * * * * * * * * * * * * * * * * * * * * * * //

scale   1;

vertices
(
    (-3.1 -0.95 0.000)
    (6.1 -0.95 0.000)
    (6.1 0.95 0.000)
    (-3.1 0.95 0.000)
    (-3.1 -0.95  1.4)
    (6.1 -0.95 1.4)
    (6.1 0.95 1.4)
    (-3.1 0.95 1.4)
);

blocks
(
    hex (0 1 2 3 4 5 6 7) (16 8 8) simpleGrading (1 1 1)
);

edges
(
);

boundary
(
    ffminy
    {
        type patch;
        faces
        (
            (1 5 4 0)
        );
    }
    ffmaxy
    {   
        type patch;
        faces
        (   
            (3 7 6 2)
        );
    }
    inlet
    {
        type patch;
        faces
        (
            (0 4 7 3)
        );
    }
    outlet
    {
        type patch;
        faces
        (
            (2 6 5 1)
        );
    }
    ffminz
    {
        type wall;
        faces
        (
            (0 3 2 1)
        );
    }
    ffmaxz
    {
        type patch;
        faces
        (
            (4 5 6 7)
        );
    }
);

// ************************************************************************* //
